
**** 12/03/23 16:24:45 ********* PSpice 9.2 (Mar 2000) ******** ID# 0 ********

 * C:\Users\sdorunts\Desktop\BMSTU Altium\Low-Freq-Amp\Simulation\Scheme_Sim.sch


 ****     CIRCUIT DESCRIPTION


******************************************************************************




* Schematics Version 9.2
* Sun Dec 03 16:24:45 2023


.PARAM         Rn=3 Vin=180mV Re=75

** Analysis setup **
.tran 0ns 10ms 0 10us
.OP 


* From [PSPICE NETLIST] section of C:\Program Files\Orcad\PSpice\PSpice.ini:
.lib "nom.lib"

.INC "Scheme_Sim.net"



**** INCLUDING Scheme_Sim.net ****
* Schematics Netlist *



C_C3         0 $N_0001  220n  
C_C6         $N_0002 $N_0003  10u  
C_C10         0 $N_0004  470u  
C_C7         $N_0005 $N_0006  220p  
C_C9         $N_0007 $N_0006  100p  
C_C2         0 $N_0008  1u  
C_C1         0 $N_0008  220u  
C_C4         $N_0009 $N_0010  220u  
C_C5         $N_0006 $N_0011  470n  
R_R3         $N_0010 $N_0011  1k  
C_C8         0 $N_0012  100n  
R_R8         $N_0012 $N_0009  1  
R_R2         $N_0010 $N_0008  1k  
R_R5         $N_0009 $N_0013  1  
R_R9         $N_0014 $N_0009  1  
R_R13         0 $N_0009  3  
V_V1         $N_0002 0 DC 0 AC 30mV
+SIN 0 {Vin} 1k 0 0 0
R_R10         $N_0004 $N_0005  100  
C_C11         $N_0015 0  1u  
C_C12         $N_0015 0  220u  
X_Q5         $N_0015 $N_0006 $N_0014 TIP147
Q_Q2         $N_0007 $N_0003 $N_0016 BC556B 
Q_Q1         $N_0015 $N_0005 $N_0016 BC556B 
R_R1         $N_0001 $N_0008  2.2k  
R_R4         $N_0016 $N_0001  2.7k  
V_V5         $N_0001 0 12V
R_R18         $N_0015 $N_0017  {Re}  
D_D2         $N_0018 $N_0019 D1N4001 
D_D3         $N_0019 $N_0006 D1N4001 
D_D34         $N_0013 $N_0009 D1N4007 
D_D36         $N_0009 $N_0014 D1N4007 
D_D35         $N_0009 $N_0014 D1N4007 
X_Q4         $N_0008 $N_0011 $N_0013 TIP142
D_D1         $N_0011 $N_0018 D1N4001 
Q_Q9         $N_0006 $N_0007 $N_0017 BD241C
R_R6         $N_0005 $N_0009  8.2k  
R_R7         0 $N_0003  1k  
D_D33         $N_0013 $N_0009 D1N4007 
R_R17         $N_0015 $N_0007  470  
V_V2         $N_0008 0 24V
V_V3         0 $N_0015 -24V

**** RESUMING Scheme_Sim.cir ****
.PROBE V(*) I(*) W(*) D(*) NOISE(*) 


.END

**** 12/03/23 16:24:45 ********* PSpice 9.2 (Mar 2000) ******** ID# 0 ********

 * C:\Users\sdorunts\Desktop\BMSTU Altium\Low-Freq-Amp\Simulation\Scheme_Sim.sch


 ****     Diode MODEL PARAMETERS


******************************************************************************




               D1N4001         D1N4007         X_Q5.Dmodel     X_Q4.Dmodel     
          IS   14.110000E-09   14.110000E-09    4.388700E-12    4.388700E-12 
           N    1.984           1.984           3.4748          3.4748       
         ISR                                  100.000000E-12  100.000000E-12 
         IKF   94.81           94.81                                         
          BV   75               1.500000E+03  120             120            
         IBV   10.000000E-06   10.000000E-06    1.000000E-06    1.000000E-06 
          RS     .03389          .03389         1.000000E-03    1.000000E-03 
          TT    5.700000E-06    5.700000E-06    5.000000E-09    5.000000E-09 
         CJO   25.890000E-12   25.890000E-12    1.000000E-12    1.000000E-12 
          VJ     .3245           .3245           .75             .75         
           M     .44             .44             .3333           .3333       


**** 12/03/23 16:24:45 ********* PSpice 9.2 (Mar 2000) ******** ID# 0 ********

 * C:\Users\sdorunts\Desktop\BMSTU Altium\Low-Freq-Amp\Simulation\Scheme_Sim.sch


 ****     BJT MODEL PARAMETERS


******************************************************************************




               BC556B          BD241C          X_Q5.Q1model    X_Q5.Q2model    
               PNP             NPN             PNP             PNP             
          IS    1.020000E-15    2.447000E-12  350.700000E-15  350.700000E-15 
          BF  306.5           208.2             2.997000E+03    2.997000E+03 
          NF    1               1               1               1            
         VAF   52.31          100             100             100            
         IKF     .09185          .9743           .7028           .7028       
         ISE   10.270000E-15   70.690000E-12   20.450000E-12   20.450000E-12 
          NE    1.764           1.565           1.522           1.522        
          BR    7.437          12.59             .1001           .1001       
          NR    1               1               1               1            
         VAR                                  100             100            
         IKR    1.7             3.86            4.029           4.029        
         ISC    1.020000E-15   11.680000E-09   21.470000E-09   21.470000E-09 
          NC    1.63            1.835           1.562           1.562        
          NK     .5351           .6134           .7315           .7315       
          RB                     .1             5.07314         5.07314      
          RC    1.162            .4685          1.010530E-03    1.010530E-03 
         CJE   30.000000E-12  188.500000E-12    2.000000E-12    2.000000E-12 
         VJE     .5                                                          
         MJE     .3333           .4878                                       
         CJC    9.810000E-12  142.000000E-12    2.000000E-12                 
         VJC     .4865                                                       
         MJC     .332            .4353                                       
        XCJC                                     .9              .9          
          TF  611.600000E-12   19.850000E-09   15.000000E-09   15.000000E-09 
         XTF   25.92            5.945           1               1            
         VTF   10              10              10              10            
         ITF    1.37          164.1              .01             .01         
          TR   10.000000E-09  194.200000E-09   80.000000E-06   80.000000E-06 
         XTB    1.5             1.5                                          
          CN    2.2             2.42            2.2             2.2          
           D     .52             .87             .52             .52         


               X_Q4.Q1model    X_Q4.Q2model    
               NPN             NPN             
          IS    1.605000E-12    1.605000E-12 
          BF  745.1           745.1          
          NF    1               1            
         VAF  100             100            
         IKF     .3592           .3592       
         ISE    3.554000E-09    3.554000E-09 
          NE    1.998           1.998        
          BR     .1018           .1018       
          NR    1               1            
         VAR  100             100            
         IKR    2.814           2.814        
         ISC    3.257000E-12    3.257000E-12 
          NC    2.37            2.37         
          NK     .4489           .4489       
          RB     .159612         .159612     
          RC     .106336         .106336     
         CJE    2.000000E-12    2.000000E-12 
         CJC    2.000000E-12                 
        XCJC     .9              .9          
          TF   23.000000E-09   23.000000E-09 
         XTF    1               1            
         VTF   10              10            
         ITF     .01             .01         
          TR    1.500000E-06    1.500000E-06 
          CN    2.42            2.42         
           D     .87             .87         


ERROR -- Convergence problem in bias point calculation


  Last node voltages tried were:

 NODE   VOLTAGE     NODE   VOLTAGE     NODE   VOLTAGE     NODE   VOLTAGE


(X_Q4.4)   19.4870 (X_Q5.4)   21.4360 ($N_0001)   10.9680                       

($N_0002)    0.0000                   ($N_0003)   14.7830                       

($N_0004)   21.1890                   ($N_0005)   21.1890                       

($N_0006)   21.6490                   ($N_0007)   15.6340                       

($N_0008)   21.9370                   ($N_0009)   17.7200                       

($N_0010)   21.0280                   ($N_0011)   20.1190                       

($N_0012)   17.7200                   ($N_0013)   18.6810                       

($N_0014)   20.6800                   ($N_0015)   21.9370                       

($N_0016)   15.6190                   ($N_0017)   21.9370                       

($N_0018)   20.6770                   ($N_0019)   21.1890                   


  These voltages failed to converge:

    V($N_0018)                =     20.59V  \     20.68V
    V($N_0019)                =     21.14V  \     21.19V

Try running with .OPTION STEPGMIN
